.SUBCKT XFORMER 1 2 3 4 5 6
*inductances
L1 1 2 1600u
L2 3 4 100u
L3 5 6 100u
*coupling factors
K12 L1 L2 1
K13 L1 L3 1
K23 L2 L3 1
.ENDS XFORMER