Version 4
SHEET 1 996 680
WIRE 368 -320 64 -320
WIRE 368 -256 368 -320
WIRE 80 -112 -144 -112
WIRE 368 -112 368 -176
WIRE 368 -112 80 -112
WIRE 368 -80 368 -112
WIRE -144 -48 -144 -112
WIRE 80 -48 80 -112
WIRE 368 32 368 0
WIRE 752 32 368 32
WIRE 880 32 752 32
WIRE 960 32 880 32
WIRE 80 48 80 16
WIRE 752 48 752 32
WIRE 960 48 960 32
WIRE 368 64 368 32
WIRE -144 112 -144 32
WIRE 80 112 -144 112
WIRE 304 112 80 112
WIRE -144 128 -144 112
WIRE 880 128 880 32
WIRE 512 160 368 160
WIRE 576 160 512 160
WIRE 752 160 752 112
WIRE 752 160 656 160
WIRE 960 160 960 112
WIRE 368 208 368 160
WIRE 960 208 960 160
WIRE -144 224 -144 192
WIRE 80 224 80 112
WIRE -352 256 -352 224
WIRE 512 272 512 160
WIRE 576 272 512 272
WIRE 752 272 752 160
WIRE 752 272 656 272
WIRE 512 304 512 272
WIRE 752 320 752 272
WIRE -352 352 -352 336
WIRE -144 352 -144 304
WIRE 80 352 80 304
WIRE 368 352 368 288
WIRE 512 400 512 384
WIRE 752 400 752 384
WIRE 880 400 880 192
WIRE 960 400 960 272
FLAG -352 352 0
FLAG -352 224 +15
IOPIN -352 224 In
FLAG 368 352 0
FLAG 64 -320 +15
IOPIN 64 -320 In
FLAG -144 352 0
FLAG 80 352 0
FLAG 512 400 0
FLAG 752 400 0
FLAG 880 400 0
FLAG 960 400 0
FLAG 960 160 Out
IOPIN 960 160 Out
FLAG 80 48 0
SYMBOL res 352 192 R0
SYMATTR InstName R1
SYMATTR Value 1k
SYMBOL npn 304 64 R0
SYMATTR InstName Q1
SYMATTR Value 2N5179
SYMBOL voltage -352 240 R0
WINDOW 123 0 0 Left 0
WINDOW 39 0 0 Left 0
SYMATTR InstName V1
SYMATTR Value 15
SYMBOL res 352 -272 R0
SYMATTR InstName R204
SYMATTR Value 100
SYMBOL res -160 -64 R0
SYMATTR InstName R201
SYMATTR Value 3.3k
SYMBOL cap -160 128 R0
SYMATTR InstName C201
SYMATTR Value 470p
SYMBOL res -160 208 R0
SYMATTR InstName R202
SYMATTR Value 39
SYMBOL res 64 208 R0
SYMATTR InstName R203
SYMATTR Value 2k
SYMBOL res 672 144 R90
WINDOW 0 0 56 VBottom 2
WINDOW 3 32 56 VTop 2
SYMATTR InstName R2
SYMATTR Value 100
SYMBOL ind 672 256 R90
WINDOW 0 5 56 VBottom 2
WINDOW 3 32 56 VTop 2
SYMATTR InstName L202
SYMATTR Value 420n
SYMBOL res 496 288 R0
SYMATTR InstName R205
SYMATTR Value 510
SYMBOL cap 736 320 R0
SYMATTR InstName C205
SYMATTR Value 33p
SYMBOL cap 736 48 R0
SYMATTR InstName C204
SYMATTR Value 33p
SYMBOL cap 864 128 R0
SYMATTR InstName C206
SYMATTR Value 15p
SYMBOL cap 944 48 R0
SYMATTR InstName C207
SYMATTR Value 15p
SYMBOL cap 944 208 R0
SYMATTR InstName C208
SYMATTR Value 82p
SYMBOL cap 64 -48 R0
SYMATTR InstName C203
SYMATTR Value 470p
SYMBOL ind 352 -96 R0
SYMATTR InstName L201
SYMATTR Value 40n
TEXT -384 368 Left 2 !.tran 10u
TEXT -256 432 Left 2 !.lib "C:\\Users\\Dougl\\OneDrive\\Ham Radio\\KiCad Files\\W7ZOI Spectrum Analyzer\\2ndmixer-2ndlo\\2ndmixer-2ndlo\\2ndmixer-2ndlo-spice\\2N5179.LIB"
