Version 4
SHEET 1 1020 680
WIRE 704 -368 704 -384
WIRE 928 -336 800 -336
WIRE 944 -336 928 -336
WIRE 800 -320 800 -336
WIRE 704 -256 704 -288
WIRE 800 -208 800 -240
WIRE 928 -208 928 -256
WIRE 704 -80 704 -176
WIRE 704 -80 592 -80
WIRE 592 -48 592 -80
WIRE 704 32 704 -80
WIRE 208 80 176 80
WIRE 304 80 288 80
WIRE 464 80 384 80
WIRE 640 80 528 80
WIRE 592 112 592 32
WIRE 304 144 304 80
WIRE 704 144 704 128
WIRE 752 144 704 144
WIRE 848 144 752 144
WIRE -96 160 -272 160
WIRE -304 176 -400 176
WIRE -96 192 -96 160
WIRE -400 208 -400 176
WIRE -304 208 -304 176
WIRE -240 208 -304 208
WIRE -608 224 -656 224
WIRE -480 224 -528 224
WIRE -304 224 -304 208
WIRE -240 224 -240 208
WIRE 16 224 -16 224
WIRE 176 224 96 224
WIRE 592 224 592 192
WIRE -16 256 -16 224
WIRE 176 256 176 224
WIRE 304 256 304 224
WIRE 848 256 848 224
WIRE -656 272 -656 224
WIRE -480 272 -480 224
WIRE -96 288 -96 272
WIRE -96 288 -128 288
WIRE -400 304 -400 288
WIRE -352 304 -400 304
WIRE -304 304 -304 288
WIRE -272 304 -272 160
WIRE -272 304 -304 304
WIRE -240 304 -240 288
WIRE -176 304 -240 304
WIRE -96 304 -96 288
WIRE -400 320 -400 304
WIRE -304 320 -304 304
WIRE -240 320 -240 304
WIRE 304 336 304 320
WIRE 752 336 752 224
WIRE 768 336 752 336
WIRE 768 352 768 336
WIRE 848 352 848 320
WIRE -656 400 -656 352
WIRE -480 400 -480 352
WIRE -480 400 -656 400
WIRE -304 400 -304 384
WIRE -240 400 -240 384
WIRE -240 400 -304 400
WIRE -176 400 -176 304
WIRE -96 400 -96 384
WIRE -96 400 -176 400
WIRE -16 400 -16 336
WIRE 176 400 176 336
WIRE 176 400 -16 400
WIRE -656 432 -656 400
WIRE -400 432 -400 400
WIRE -304 432 -304 400
WIRE -304 432 -400 432
WIRE -352 448 -352 304
WIRE -720 480 -720 448
WIRE -720 592 -720 560
FLAG -656 432 0
FLAG 176 400 0
FLAG 304 336 0
FLAG 944 -336 Out
IOPIN 944 -336 Out
FLAG -352 448 0
FLAG -128 288 I
IOPIN -128 288 Out
FLAG 176 80 I
IOPIN 176 80 In
FLAG 848 352 0
FLAG 768 352 0
FLAG 592 224 0
FLAG -720 592 0
FLAG -720 448 +15
FLAG 704 -464 +15
IOPIN 704 -464 In
FLAG 800 -208 0
FLAG 928 -208 0
SYMBOL voltage -656 256 R0
WINDOW 123 24 108 Left 2
WINDOW 39 24 108 Left 2
SYMATTR Value2 AC 1
SYMATTR InstName VLO
SYMATTR Value SINE(0 6.3 100Meg)
SYMBOL voltage 176 240 R0
WINDOW 123 24 108 Left 2
WINDOW 39 24 108 Left 2
SYMATTR Value2 AC 1
SYMATTR InstName Vrf
SYMATTR Value SINE(0 .3 10Meg)
SYMBOL ind2 288 96 R270
WINDOW 0 32 56 VTop 2
WINDOW 3 5 56 VBottom 2
SYMATTR InstName L7
SYMATTR Value 1µ
SYMATTR Type ind
SYMBOL res 288 128 R0
SYMATTR InstName R1
SYMATTR Value 51
SYMBOL cap 288 256 R0
SYMATTR InstName C1
SYMATTR Value 120p
SYMBOL cap 528 64 R90
WINDOW 0 0 32 VBottom 2
WINDOW 3 32 32 VTop 2
SYMATTR InstName C2
SYMATTR Value .1µ
SYMBOL res 304 64 R90
WINDOW 0 0 56 VBottom 2
WINDOW 3 32 56 VTop 2
SYMATTR InstName R2
SYMATTR Value 50
SYMBOL res -512 208 R90
WINDOW 0 0 56 VBottom 2
WINDOW 3 32 56 VTop 2
SYMATTR InstName R3
SYMATTR Value 50
SYMBOL ind2 -496 256 R0
SYMATTR InstName L1
SYMATTR Value 10µ
SYMATTR Type ind
SYMBOL res 112 208 R90
WINDOW 0 0 56 VBottom 2
WINDOW 3 32 56 VTop 2
SYMATTR InstName R4
SYMATTR Value 50
SYMBOL ind2 0 352 R180
WINDOW 0 36 80 Left 2
WINDOW 3 36 40 Left 2
SYMATTR InstName L6
SYMATTR Value 10µ
SYMATTR Type ind
SYMBOL diode -288 288 R180
WINDOW 0 24 64 Left 2
WINDOW 3 24 0 Left 2
SYMATTR InstName D1
SYMBOL diode -288 384 R180
WINDOW 0 24 64 Left 2
WINDOW 3 24 0 Left 2
SYMATTR InstName D2
SYMBOL ind2 -384 304 R180
WINDOW 0 36 80 Left 2
WINDOW 3 36 40 Left 2
SYMATTR InstName L2
SYMATTR Value 10µ
SYMATTR Type ind
SYMBOL ind2 -384 416 R180
WINDOW 0 36 80 Left 2
WINDOW 3 36 40 Left 2
SYMATTR InstName L3
SYMATTR Value 10µ
SYMATTR Type ind
SYMBOL ind2 -112 176 R0
SYMATTR InstName L4
SYMATTR Value 10µ
SYMATTR Type ind
SYMBOL ind2 -112 288 R0
SYMATTR InstName L5
SYMATTR Value 10µ
SYMATTR Type ind
SYMBOL diode -256 224 R0
SYMATTR InstName D3
SYMBOL diode -256 320 R0
SYMATTR InstName D4
SYMBOL npn 640 32 R0
SYMATTR InstName Q1
SYMATTR Value 2N5179
SYMBOL res 736 128 R0
SYMATTR InstName R5
SYMATTR Value 27
SYMBOL res 832 128 R0
SYMATTR InstName R6
SYMATTR Value 5.1
SYMBOL cap 832 256 R0
SYMATTR InstName C3
SYMATTR Value .1µ
SYMBOL res 576 -64 R0
SYMATTR InstName R7
SYMATTR Value 2k
SYMBOL res 576 96 R0
SYMATTR InstName R8
SYMATTR Value 390
SYMBOL voltage -720 464 R0
WINDOW 123 0 0 Left 0
WINDOW 39 0 0 Left 0
SYMATTR InstName V1
SYMATTR Value +15
SYMBOL res 688 -480 R0
SYMATTR InstName R9
SYMATTR Value 27
SYMBOL ind2 816 -224 R180
WINDOW 0 36 80 Left 2
WINDOW 3 36 40 Left 2
SYMATTR InstName L10
SYMATTR Value 10µ
SYMATTR Type ind
SYMBOL ind2 688 -384 R0
SYMATTR InstName L8
SYMATTR Value 10µ
SYMATTR Type ind
SYMBOL ind2 688 -272 R0
SYMATTR InstName L9
SYMATTR Value 10µ
SYMATTR Type ind
SYMBOL res 944 -240 R180
WINDOW 0 36 76 Left 2
WINDOW 3 36 40 Left 2
SYMATTR InstName R10
SYMATTR Value 50
TEXT 216 448 Left 2 !.tran 0 500nn 0 10n
TEXT -496 192 Left 2 !K1 L1 L2 L3 1
TEXT -64 192 Left 2 !K2 L4 L5 L6 1
TEXT 776 -384 Left 2 !K3 L8 L9 L10 1
TEXT 230 478 Left 2 ;.ac dec 1000 100k 150Meg
TEXT 240 512 Left 2 !.include C:\\Users\\Dougl\\OneDrive\\Ham Radio\\KiCad Files\\KiCad-Spice-Library-master\\Models\\Transistor\\BJT\\bjt.lib
