1
9
.tran 10m 500m{return}{return}
2
1
Out
V
1
VCO_Out
V
