version 2
1
9
.tran .5n 200n 0{return}{return}{return}.kicad adjustpaths{return}.save all{return}.probe alli
1
1
V(/Out)
 
