1
1
.ac dec 1000 1Meg 100Meg
2
9
Net-(C515-Pad2)
V
5
Net-(C515-Pad2)
V
