1
1
.ac dec 1001 1E6 100E6{return}{return}
1
9
/Out
V
