version 2
1
1
.ac dec 1001 1.0k 200.0Meg{return}{return}{return}.kicad adjustpaths{return}.save all{return}.probe alli
2
9
V(/Out)
 
5
V(/Out)
 
