version 2
1
9
.tran 100n 1m 0{return}.kicad adjustpaths{return}.save all{return}.probe alli
2
1
V(/Out)
 
1
V(Net-_Q1-B_)
 
