Version 4
SHEET 1 884 680
WIRE 384 -112 352 -112
WIRE 528 -112 464 -112
WIRE 672 -112 528 -112
WIRE 864 -112 672 -112
WIRE 864 -48 864 -112
WIRE 352 -32 352 -112
WIRE 672 -32 672 -112
WIRE 528 32 528 -112
WIRE 864 48 864 16
WIRE 352 64 352 48
WIRE 672 112 672 48
WIRE 720 112 672 112
WIRE 672 128 672 112
WIRE 400 176 304 176
WIRE 528 176 528 112
WIRE 528 176 400 176
WIRE 608 176 528 176
WIRE 304 192 304 176
WIRE 528 224 528 176
WIRE 304 288 304 256
WIRE 528 320 528 288
WIRE 672 320 672 224
WIRE 672 320 528 320
WIRE 400 336 400 176
WIRE 672 336 672 320
WIRE 528 352 528 320
WIRE 400 448 400 416
WIRE 528 448 528 416
WIRE 672 448 672 416
FLAG 352 64 0
FLAG 304 288 0
FLAG 400 448 0
FLAG 528 448 0
FLAG 672 448 0
FLAG 864 48 0
FLAG 784 112 Out
IOPIN 784 112 Out
SYMBOL npn 608 128 R0
SYMATTR InstName Q1
SYMBOL cap 784 96 R90
WINDOW 0 0 32 VBottom 2
WINDOW 3 32 32 VTop 2
SYMATTR InstName C1
SYMATTR Value .1µ
SYMBOL cap 880 16 R180
WINDOW 0 24 56 Left 2
WINDOW 3 24 8 Left 2
SYMATTR InstName C2
SYMATTR Value .1µ
SYMBOL cap 544 288 R180
WINDOW 0 24 56 Left 2
WINDOW 3 24 8 Left 2
SYMATTR InstName C3
SYMATTR Value 470p
SYMBOL cap 544 416 R180
WINDOW 0 24 56 Left 2
WINDOW 3 24 8 Left 2
SYMATTR InstName C4
SYMATTR Value 470p
SYMBOL res 656 320 R0
SYMATTR InstName R1
SYMATTR Value 10k
SYMBOL res 656 -48 R0
SYMATTR InstName R2
SYMATTR Value 51
SYMBOL res 512 16 R0
SYMATTR InstName R3
SYMATTR Value 100k
SYMBOL res 480 -128 R90
WINDOW 0 0 56 VBottom 2
WINDOW 3 32 56 VTop 2
SYMATTR InstName R4
SYMATTR Value 1k
SYMBOL res 384 320 R0
SYMATTR InstName R5
SYMATTR Value 100k
SYMBOL voltage 352 -48 R0
WINDOW 123 24 108 Left 2
WINDOW 39 0 0 Left 0
SYMATTR InstName V1
SYMATTR Value ""
SYMATTR Value2 AC 1
SYMBOL Misc\\xtal 288 192 R0
SYMATTR InstName C5
SYMATTR Value 19.6f
SYMATTR SpiceLine Rser=972.5 Lser=26m Cpar=6.18p
TEXT 286 462 Left 2 !.ac dec 1Meg 6.5Meg 7.5Meg
