Version 4
SHEET 1 1720 1008
WIRE 704 -144 704 -176
WIRE -576 -128 -576 -176
WIRE -464 -128 -464 -176
WIRE 704 -48 704 -64
WIRE 1088 -48 704 -48
WIRE 1136 -48 1088 -48
WIRE -576 -16 -576 -48
WIRE -464 -16 -464 -48
WIRE 400 0 336 0
WIRE 496 0 448 0
WIRE 560 0 544 0
WIRE 400 16 400 0
WIRE 496 16 496 0
WIRE 560 16 560 0
WIRE 336 32 336 0
WIRE 448 32 448 0
WIRE 544 32 544 0
WIRE 704 32 704 -48
WIRE 736 32 704 32
WIRE 1088 32 1088 -48
WIRE 1088 32 1056 32
WIRE 1136 32 1136 16
WIRE 480 80 416 80
WIRE 1488 80 1456 80
WIRE 416 96 416 80
WIRE 416 96 400 96
WIRE 1488 112 1488 80
WIRE -864 128 -864 96
WIRE -784 128 -784 96
WIRE -368 128 -400 128
WIRE -320 128 -368 128
WIRE -208 128 -256 128
WIRE 272 128 -112 128
WIRE 416 128 352 128
WIRE 480 128 480 80
WIRE 496 128 496 80
WIRE 496 128 480 128
WIRE 560 128 560 80
WIRE 560 128 496 128
WIRE 608 128 560 128
WIRE 736 128 672 128
WIRE 1424 128 1376 128
WIRE -368 144 -368 128
WIRE 1376 144 1376 128
WIRE -208 160 -304 160
WIRE -80 160 -112 160
WIRE -208 192 -256 192
WIRE 32 192 -112 192
WIRE 112 192 32 192
WIRE 128 192 112 192
WIRE 256 192 208 192
WIRE 1424 208 1424 192
WIRE 1424 208 1328 208
WIRE 1488 208 1488 192
WIRE 1488 208 1424 208
WIRE -208 224 -240 224
WIRE -32 224 -112 224
WIRE 736 224 624 224
WIRE 1136 224 1056 224
WIRE 1296 224 1136 224
WIRE -864 240 -864 208
WIRE -784 240 -784 208
WIRE -368 240 -368 224
WIRE -240 240 -240 224
WIRE -32 240 -32 224
WIRE 32 240 32 192
WIRE 112 240 112 192
WIRE 624 240 624 224
WIRE 1392 240 1360 240
WIRE 1136 256 1136 224
WIRE 1296 256 1248 256
WIRE 1392 272 1392 240
WIRE 1424 272 1392 272
WIRE 1456 272 1424 272
WIRE 1584 272 1536 272
WIRE -256 304 -256 192
WIRE -240 304 -256 304
WIRE -688 320 -720 320
WIRE -576 320 -608 320
WIRE -480 320 -576 320
WIRE -432 320 -480 320
WIRE -304 320 -304 160
WIRE -304 320 -352 320
WIRE -256 320 -256 304
WIRE 624 320 624 304
WIRE 736 320 704 320
WIRE -176 336 -176 304
WIRE -32 336 -32 304
WIRE 32 336 32 304
WIRE 112 336 112 320
WIRE 704 336 704 320
WIRE -576 352 -576 320
WIRE 1136 352 1136 320
WIRE 1248 352 1248 256
WIRE 1296 352 1248 352
WIRE 1424 352 1424 272
WIRE 1424 352 1376 352
WIRE -480 368 -480 320
WIRE -304 368 -304 320
WIRE -704 384 -720 384
WIRE 1248 384 1248 352
WIRE -256 416 -256 400
WIRE -576 448 -576 432
WIRE -480 448 -480 432
WIRE -304 448 -304 432
WIRE -704 464 -960 464
WIRE -704 480 -704 464
WIRE 1248 496 1248 464
WIRE -960 528 -960 464
WIRE -80 576 -80 160
WIRE -80 576 -912 576
WIRE -704 592 -704 560
WIRE -960 688 -960 608
WIRE -704 688 -704 672
WIRE -704 688 -960 688
WIRE -704 704 -704 688
FLAG -240 240 0
FLAG -368 240 0
FLAG -304 448 0
FLAG -400 128 Coax
FLAG -480 448 0
FLAG -576 448 0
FLAG -720 320 +10
IOPIN -720 320 In
FLAG -256 416 +10
IOPIN -256 416 In
FLAG -176 336 0
FLAG -32 336 0
FLAG 32 336 0
FLAG 256 192 +10
IOPIN 256 192 In
FLAG 112 336 0
FLAG -720 384 +10
IOPIN -720 384 In
FLAG -704 704 0
FLAG 1584 272 Out
IOPIN 1584 272 Out
FLAG 336 32 0
FLAG 448 32 0
FLAG 544 32 0
FLAG -864 240 0
FLAG -784 240 0
FLAG -864 96 +10
IOPIN -864 96 Out
FLAG -784 96 Coax
FLAG 704 336 0
FLAG 1136 32 0
FLAG 624 320 0
FLAG 704 -176 +5
IOPIN 704 -176 In
FLAG 1136 352 0
FLAG 1248 496 0
FLAG 1456 80 +15
IOPIN 1456 80 In
FLAG 1376 144 0
FLAG -576 -16 0
FLAG -464 -16 0
FLAG -576 -176 +5
IOPIN -576 -176 Out
FLAG -464 -176 +15
IOPIN -464 -176 Out
SYMBOL AutoGenerated\\AD603 -160 176 R0
SYMATTR InstName U1
SYMBOL cap -256 112 R90
WINDOW 0 0 32 VBottom 2
WINDOW 3 32 32 VTop 2
SYMATTR InstName C1
SYMATTR Value .01µ
SYMBOL res -384 128 R0
SYMATTR InstName R1
SYMATTR Value 100
SYMBOL res -336 304 R90
WINDOW 0 0 56 VBottom 2
WINDOW 3 32 56 VTop 2
SYMATTR InstName R2
SYMATTR Value 51
SYMBOL res -592 336 R0
SYMATTR InstName R3
SYMATTR Value 2.2k
SYMBOL res -592 304 R90
WINDOW 0 0 56 VBottom 2
WINDOW 3 32 56 VTop 2
SYMATTR InstName R4
SYMATTR Value 2.2k
SYMBOL cap -320 368 R0
SYMATTR InstName C2
SYMATTR Value .1µ
SYMBOL polcap -496 368 R0
SYMATTR InstName C3
SYMATTR Value 100µ
SYMBOL res -272 304 R0
SYMATTR InstName R5
SYMATTR Value 10
SYMBOL cap -176 288 R90
WINDOW 0 0 32 VBottom 2
WINDOW 3 32 32 VTop 2
SYMATTR InstName C4
SYMATTR Value .1µ
SYMBOL cap -48 240 R0
SYMATTR InstName C5
SYMATTR Value 18µ
SYMBOL cap 16 240 R0
SYMATTR InstName C6
SYMATTR Value .1µ
SYMBOL res 224 176 R90
WINDOW 0 0 56 VBottom 2
WINDOW 3 32 56 VTop 2
SYMATTR InstName R6
SYMATTR Value 4.3k
SYMBOL res 128 336 R180
WINDOW 0 36 76 Left 2
WINDOW 3 36 40 Left 2
SYMATTR InstName R7
SYMATTR Value 5.6k
SYMBOL potentiometer_standard -976 512 R0
SYMATTR InstName U2
SYMBOL res -720 576 R0
SYMATTR InstName R8
SYMATTR Value 1k
SYMBOL res -720 464 R0
SYMATTR InstName R9
SYMATTR Value 510
SYMBOL res -720 368 R0
SYMATTR InstName R10
SYMATTR Value 680
SYMBOL res 368 112 R90
WINDOW 0 0 56 VBottom 2
WINDOW 3 32 56 VTop 2
SYMATTR InstName R11
SYMATTR Value 1k
SYMBOL cap 480 112 R90
WINDOW 0 0 32 VBottom 2
WINDOW 3 32 32 VTop 2
SYMATTR InstName C7
SYMATTR Value 5.6p
SYMBOL cap 672 112 R90
WINDOW 0 0 32 VBottom 2
WINDOW 3 32 32 VTop 2
SYMATTR InstName C8
SYMATTR Value 5.6p
SYMBOL ind 416 112 R180
WINDOW 0 36 80 Left 2
WINDOW 3 36 40 Left 2
SYMATTR InstName L1
SYMATTR Value 1.05µ
SYMBOL cap 480 16 R0
SYMATTR InstName C9
SYMATTR Value 51.5p
SYMBOL cap 544 16 R0
SYMATTR InstName C10
SYMATTR Value 180p
SYMBOL voltage -864 112 R0
WINDOW 123 0 0 Left 0
WINDOW 39 0 0 Left 0
SYMATTR InstName V1
SYMATTR Value 10
SYMBOL voltage -784 112 R0
WINDOW 123 24 108 Left 2
WINDOW 39 0 0 Left 0
WINDOW 3 24 28 Left 2
SYMATTR Value SINE(0 1 9.971Meg)
SYMATTR InstName V2
SYMBOL OpAmps\\AD8310 896 176 R0
SYMATTR InstName U3
SYMBOL cap 1120 -48 R0
SYMATTR InstName C11
SYMATTR Value .1µ
SYMBOL cap 608 240 R0
SYMATTR InstName C12
SYMATTR Value .1µ
SYMBOL res 688 -160 R0
SYMATTR InstName R12
SYMATTR Value 10
SYMBOL cap 1120 256 R0
SYMATTR InstName C13
SYMATTR Value .001µ
SYMBOL res 1232 368 R0
SYMATTR InstName R13
SYMATTR Value 680
SYMBOL res 1552 256 R90
WINDOW 0 0 56 VBottom 2
WINDOW 3 32 56 VTop 2
SYMATTR InstName R14
SYMATTR Value 1k
SYMBOL res 1392 336 R90
WINDOW 0 0 56 VBottom 2
WINDOW 3 32 56 VTop 2
SYMATTR InstName R15
SYMATTR Value 2.2k
SYMBOL res 1472 96 R0
SYMATTR InstName R16
SYMATTR Value 51
SYMBOL cap 1408 128 R0
SYMATTR InstName C14
SYMATTR Value .1µ
SYMBOL voltage -576 -144 R0
WINDOW 123 0 0 Left 0
WINDOW 39 0 0 Left 0
SYMATTR InstName V3
SYMATTR Value 5
SYMBOL voltage -464 -144 R0
WINDOW 123 0 0 Left 0
WINDOW 39 0 0 Left 0
SYMATTR InstName V4
SYMATTR Value 15
SYMBOL OpAmps\\UniversalOpAmp 1328 240 M180
SYMATTR InstName U5
TEXT -864 560 Left 2 ;5n FT capacitors on each pot pin
TEXT -736 168 Left 2 !.tran 0 100u 5u
TEXT -656 168 Left 2 !.param dBV 10
