Version 4
SHEET 1 932 680
WIRE 0 -16 -48 -16
WIRE 48 -16 0 -16
WIRE 112 -16 48 -16
WIRE 128 -16 112 -16
WIRE 208 -16 192 -16
WIRE 256 -16 208 -16
WIRE 320 -16 256 -16
WIRE 336 -16 320 -16
WIRE 416 -16 400 -16
WIRE 464 -16 416 -16
WIRE 544 -16 464 -16
WIRE 576 -16 544 -16
WIRE 656 -16 640 -16
WIRE 704 -16 656 -16
WIRE 784 -16 704 -16
WIRE 832 -16 784 -16
WIRE 0 16 0 -16
WIRE 208 16 208 -16
WIRE 416 16 416 -16
WIRE 656 16 656 -16
WIRE -48 48 -112 48
WIRE -48 64 -48 48
WIRE 832 64 832 48
WIRE -272 96 -272 64
WIRE 0 96 0 80
WIRE 48 96 48 48
WIRE 112 96 112 64
WIRE 208 96 208 80
WIRE 256 96 256 48
WIRE 320 96 320 64
WIRE 416 96 416 80
WIRE 464 96 464 48
WIRE 544 96 544 64
WIRE 656 96 656 80
WIRE 704 96 704 48
WIRE 784 96 784 64
WIRE -48 144 -48 128
WIRE 80 176 16 176
WIRE 144 176 80 176
WIRE 272 176 224 176
WIRE 368 176 272 176
WIRE 624 176 528 176
WIRE -272 208 -272 176
WIRE 80 272 80 256
WIRE 272 272 272 256
WIRE -112 336 -112 48
WIRE 368 336 368 176
WIRE 368 336 -112 336
WIRE 528 336 528 176
WIRE 832 336 832 128
WIRE 832 336 528 336
FLAG 16 176 In
IOPIN 16 176 In
FLAG 80 272 0
FLAG 272 272 0
FLAG -48 144 0
FLAG 0 96 0
FLAG 48 96 0
FLAG 112 96 0
FLAG 208 96 0
FLAG 256 96 0
FLAG 320 96 0
FLAG 624 176 Out
IOPIN 624 176 Out
FLAG -272 208 0
FLAG 416 96 0
FLAG 464 96 0
FLAG 544 96 0
FLAG 656 96 0
FLAG 704 96 0
FLAG 784 96 0
FLAG -272 64 In
IOPIN -272 64 Out
SYMBOL cap -64 -16 R0
SYMATTR InstName C1
SYMATTR Value 56p
SYMBOL cap -64 64 R0
SYMATTR InstName C2
SYMATTR Value 120p
SYMBOL cap -16 16 R0
SYMATTR InstName C3
SYMATTR Value 60p
SYMBOL cap 32 -16 R0
SYMATTR InstName C4
SYMATTR Value 120p
SYMBOL cap 192 -32 R90
WINDOW 0 0 32 VBottom 2
WINDOW 3 32 32 VTop 2
SYMATTR InstName C5
SYMATTR Value 5.6p
SYMBOL cap 192 16 R0
SYMATTR InstName C6
SYMATTR Value 60p
SYMBOL cap 240 -16 R0
SYMATTR InstName C7
SYMATTR Value 180p
SYMBOL cap 400 -32 R90
WINDOW 0 0 32 VBottom 2
WINDOW 3 32 32 VTop 2
SYMATTR InstName C8
SYMATTR Value 3.3p
SYMBOL cap 400 16 R0
SYMATTR InstName C9
SYMATTR Value 60p
SYMBOL cap 448 -16 R0
SYMATTR InstName C10
SYMATTR Value 180p
SYMBOL cap 640 -32 R90
WINDOW 0 0 32 VBottom 2
WINDOW 3 32 32 VTop 2
SYMATTR InstName C11
SYMATTR Value 5.6p
SYMBOL cap 640 16 R0
SYMATTR InstName C12
SYMATTR Value 60p
SYMBOL cap 688 -16 R0
SYMATTR InstName C13
SYMATTR Value 120p
SYMBOL cap 816 -16 R0
SYMATTR InstName C14
SYMATTR Value 56p
SYMBOL cap 816 64 R0
SYMATTR InstName C15
SYMATTR Value 120p
SYMBOL res 240 160 R90
WINDOW 0 0 56 VBottom 2
WINDOW 3 32 56 VTop 2
SYMATTR InstName R1
SYMATTR Value 36
SYMBOL res 64 160 R0
SYMATTR InstName R2
SYMATTR Value 150
SYMBOL res 256 160 R0
SYMATTR InstName R3
SYMATTR Value 150
SYMBOL ind 128 -32 M0
SYMATTR InstName L1
SYMATTR Value 1.15µ
SYMBOL ind 336 -32 M0
SYMATTR InstName L2
SYMATTR Value 1.15µ
SYMBOL ind 560 -32 M0
SYMATTR InstName L3
SYMATTR Value 1.15µ
SYMBOL ind 800 -32 M0
SYMATTR InstName L4
SYMATTR Value 1.15µ
SYMBOL voltage -272 80 R0
WINDOW 123 24 108 Left 2
WINDOW 39 0 0 Left 0
SYMATTR InstName V1
SYMATTR Value ""
SYMATTR Value2 AC 1 0
TEXT -304 0 Left 2 !.ac dec 1000 1Meg 100Meg
