Version 4
SHEET 1 880 796
WIRE 400 0 336 0
WIRE 496 0 448 0
WIRE 560 0 544 0
WIRE 400 16 400 0
WIRE 496 16 496 0
WIRE 560 16 560 0
WIRE 336 32 336 0
WIRE 448 32 448 0
WIRE 544 32 544 0
WIRE -576 128 -576 96
WIRE -496 128 -496 96
WIRE -80 128 -112 128
WIRE -32 128 -80 128
WIRE 80 128 32 128
WIRE 272 128 176 128
WIRE 400 128 400 96
WIRE 400 128 352 128
WIRE 416 128 400 128
WIRE 496 128 496 80
WIRE 496 128 480 128
WIRE 560 128 560 80
WIRE 560 128 496 128
WIRE 608 128 560 128
WIRE 688 128 672 128
WIRE -80 144 -80 128
WIRE 80 160 -16 160
WIRE 208 160 176 160
WIRE 80 192 32 192
WIRE 320 192 176 192
WIRE 400 192 320 192
WIRE 416 192 400 192
WIRE 544 192 496 192
WIRE 80 224 48 224
WIRE 256 224 176 224
WIRE -576 240 -576 208
WIRE -496 240 -496 208
WIRE -80 240 -80 224
WIRE 48 240 48 224
WIRE 256 240 256 224
WIRE 320 240 320 192
WIRE 400 240 400 192
WIRE 32 304 32 192
WIRE 48 304 32 304
WIRE -400 320 -432 320
WIRE -288 320 -320 320
WIRE -192 320 -288 320
WIRE -144 320 -192 320
WIRE -16 320 -16 160
WIRE -16 320 -64 320
WIRE 32 320 32 304
WIRE 112 336 112 304
WIRE 256 336 256 304
WIRE 320 336 320 304
WIRE 400 336 400 320
WIRE -288 352 -288 320
WIRE -192 368 -192 320
WIRE -16 368 -16 320
WIRE -416 384 -432 384
WIRE 32 416 32 400
WIRE -288 448 -288 432
WIRE -192 448 -192 432
WIRE -16 448 -16 432
WIRE -416 464 -672 464
WIRE -416 480 -416 464
WIRE -672 528 -672 464
WIRE 208 576 208 160
WIRE 208 576 -624 576
WIRE -416 592 -416 560
WIRE -672 688 -672 608
WIRE -416 688 -416 672
WIRE -416 688 -672 688
WIRE -416 704 -416 688
FLAG 48 240 0
FLAG -80 240 0
FLAG -16 448 0
FLAG -112 128 Coax
FLAG -192 448 0
FLAG -288 448 0
FLAG -432 320 +10
IOPIN -432 320 In
FLAG 32 416 +10
IOPIN 32 416 In
FLAG 112 336 0
FLAG 256 336 0
FLAG 320 336 0
FLAG 544 192 +10
IOPIN 544 192 In
FLAG 400 336 0
FLAG -432 384 +10
IOPIN -432 384 In
FLAG -416 704 0
FLAG 688 128 Out
IOPIN 688 128 Out
FLAG 336 32 0
FLAG 448 32 0
FLAG 544 32 0
FLAG -576 240 0
FLAG -496 240 0
FLAG -576 96 +10
IOPIN -576 96 Out
FLAG -496 96 Coax
SYMBOL AutoGenerated\\AD603 128 176 R0
SYMATTR InstName U1
SYMBOL cap 32 112 R90
WINDOW 0 0 32 VBottom 2
WINDOW 3 32 32 VTop 2
SYMATTR InstName C1
SYMATTR Value .01µ
SYMBOL res -96 128 R0
SYMATTR InstName R1
SYMATTR Value 100
SYMBOL res -48 304 R90
WINDOW 0 0 56 VBottom 2
WINDOW 3 32 56 VTop 2
SYMATTR InstName R2
SYMATTR Value 51
SYMBOL res -304 336 R0
SYMATTR InstName R3
SYMATTR Value 2.2k
SYMBOL res -304 304 R90
WINDOW 0 0 56 VBottom 2
WINDOW 3 32 56 VTop 2
SYMATTR InstName R4
SYMATTR Value 2.2k
SYMBOL cap -32 368 R0
SYMATTR InstName C2
SYMATTR Value .1µ
SYMBOL polcap -208 368 R0
SYMATTR InstName C3
SYMATTR Value 100µ
SYMBOL res 16 304 R0
SYMATTR InstName R5
SYMATTR Value 10
SYMBOL cap 112 288 R90
WINDOW 0 0 32 VBottom 2
WINDOW 3 32 32 VTop 2
SYMATTR InstName C4
SYMATTR Value .1µ
SYMBOL cap 240 240 R0
SYMATTR InstName C5
SYMATTR Value 18µ
SYMBOL cap 304 240 R0
SYMATTR InstName C6
SYMATTR Value .1µ
SYMBOL res 512 176 R90
WINDOW 0 0 56 VBottom 2
WINDOW 3 32 56 VTop 2
SYMATTR InstName R6
SYMATTR Value 4.3k
SYMBOL res 416 336 R180
WINDOW 0 36 76 Left 2
WINDOW 3 36 40 Left 2
SYMATTR InstName R7
SYMATTR Value 5.6k
SYMBOL potentiometer_standard -688 512 R0
SYMATTR InstName U2
SYMBOL res -432 576 R0
SYMATTR InstName R8
SYMATTR Value 1k
SYMBOL res -432 464 R0
SYMATTR InstName R9
SYMATTR Value 510
SYMBOL res -432 368 R0
SYMATTR InstName R10
SYMATTR Value 680
SYMBOL res 368 112 R90
WINDOW 0 0 56 VBottom 2
WINDOW 3 32 56 VTop 2
SYMATTR InstName R11
SYMATTR Value 1k
SYMBOL cap 480 112 R90
WINDOW 0 0 32 VBottom 2
WINDOW 3 32 32 VTop 2
SYMATTR InstName C7
SYMATTR Value 5.6p
SYMBOL cap 672 112 R90
WINDOW 0 0 32 VBottom 2
WINDOW 3 32 32 VTop 2
SYMATTR InstName C8
SYMATTR Value 5.6p
SYMBOL ind 416 112 R180
WINDOW 0 36 80 Left 2
WINDOW 3 36 40 Left 2
SYMATTR InstName L1
SYMATTR Value 1.05µ
SYMBOL cap 480 16 R0
SYMATTR InstName C9
SYMATTR Value 65p
SYMBOL cap 544 16 R0
SYMATTR InstName C10
SYMATTR Value 220p
SYMBOL voltage -576 112 R0
WINDOW 123 0 0 Left 0
WINDOW 39 0 0 Left 0
SYMATTR InstName V1
SYMATTR Value 10
SYMBOL voltage -496 112 R0
WINDOW 123 24 108 Left 2
WINDOW 39 0 0 Left 0
WINDOW 3 24 28 Left 2
SYMATTR InstName V2
SYMATTR Value SINE(0 1 10Meg)
TEXT -576 560 Left 2 ;5n FT capacitors on each pot pin
TEXT -448 168 Left 2 !.tran 10u
