version 2
1
9
.tran 1u 100m 0{return}.kicad adjustpaths{return}.save all{return}.probe alli
1
1
V(Net-_C207-Pad2_)
 
