version 2
1
9
.tran .1n 50n 0{return}{return}{return}.kicad adjustpaths{return}.save all{return}.probe alli
2
1
V(Net-_C4-Pad2_)
 
1
V(Net-_C7-Pad2_)
 
