*** Generic Diode
.MODEL 1N4148 D (BV=100 CJO=1.337p IBV=100p IS=8n M=316.713m N=2.011 RL=3.521G
+ RS=649.339m TT=8.953n VJ=9.477)