1
9
.tran 1u 450m 300m{return}{return}
1
1
VCO_Out
V
