1
9
.tran 100u 200m{return}{return}
7
1
/+15 REGULATED
V
1
/-15 REGULATED
V
1
/7815 IN
V
1
/7915 IN
V
1
/TRAN OUT1
V
1
/TRAN OUT2
V
1
/VCC
V
