Version 4
SHEET 1 964 680
WIRE 528 -192 448 -192
WIRE 608 -192 528 -192
WIRE 688 -192 608 -192
WIRE 784 -192 688 -192
WIRE 960 -192 784 -192
WIRE 448 -128 448 -192
WIRE 528 -128 528 -192
WIRE 608 -128 608 -192
WIRE 688 -128 688 -192
WIRE 784 -128 784 -192
WIRE 352 -96 240 -96
WIRE 80 -48 -48 -48
WIRE 176 -48 80 -48
WIRE 352 -48 352 -96
WIRE 448 -48 448 -64
WIRE 448 -48 352 -48
WIRE 528 -48 528 -64
WIRE 528 -48 448 -48
WIRE 80 -32 80 -48
WIRE 368 -16 240 -16
WIRE 608 0 608 -64
WIRE 608 0 352 0
WIRE 688 0 688 -64
WIRE 688 0 608 0
WIRE 448 16 448 -48
WIRE 528 16 528 -48
WIRE 608 16 608 0
WIRE 688 16 688 0
WIRE 784 16 784 -64
WIRE 80 32 -48 32
WIRE 176 32 80 32
WIRE -48 48 -48 32
WIRE 352 64 352 0
WIRE 352 64 240 64
WIRE 368 80 368 -16
WIRE 448 128 448 80
WIRE 528 128 528 80
WIRE 528 128 448 128
WIRE 608 128 608 80
WIRE 608 128 528 128
WIRE 688 128 688 80
WIRE 688 128 608 128
WIRE 784 128 784 80
WIRE 784 128 688 128
WIRE 16 176 16 160
WIRE 784 208 784 128
WIRE 784 208 -64 208
WIRE 960 256 960 -192
WIRE 960 256 32 256
WIRE 320 288 208 288
WIRE 480 288 320 288
WIRE 688 288 480 288
WIRE 320 304 320 288
WIRE 480 304 480 288
WIRE 688 304 688 288
WIRE 224 320 160 320
WIRE 32 336 32 256
WIRE 96 336 32 336
WIRE 208 352 208 288
WIRE 208 352 160 352
WIRE 224 400 224 320
WIRE 224 400 192 400
WIRE 320 400 320 368
WIRE 320 400 224 400
WIRE 480 400 480 384
WIRE 480 400 320 400
WIRE 688 400 688 368
WIRE 688 400 480 400
WIRE 192 416 192 400
WIRE 480 480 480 400
WIRE 688 480 688 400
WIRE 320 496 320 400
WIRE 192 512 160 512
WIRE -64 528 -64 208
WIRE 96 528 -64 528
WIRE 208 544 160 544
WIRE 208 592 208 544
WIRE 320 592 320 560
WIRE 320 592 208 592
WIRE 480 592 480 560
WIRE 480 592 320 592
WIRE 688 592 688 544
WIRE 688 592 480 592
FLAG -48 48 0
FLAG 368 80 0
FLAG 192 416 0
FLAG 192 512 0
SYMBOL voltage -48 48 R180
WINDOW 0 24 96 Left 2
WINDOW 3 24 16 Left 2
WINDOW 123 0 0 Left 0
WINDOW 39 24 84 Left 2
SYMATTR InstName V1
SYMATTR Value SINE(0 1 1Meg)
SYMATTR SpiceLine Rser=.1
SYMBOL ind2 160 48 M180
WINDOW 0 -13 66 Left 2
WINDOW 3 -20 38 Left 2
SYMATTR InstName L1
SYMATTR Value 100µ
SYMATTR Type ind
SYMATTR SpiceLine Rser=1m
SYMBOL ind2 256 -112 M0
WINDOW 0 -14 34 Left 2
WINDOW 3 -26 67 Left 2
SYMATTR InstName L2
SYMATTR Value 900µ
SYMATTR Type ind
SYMBOL ind2 256 80 R180
WINDOW 0 -14 69 Left 2
WINDOW 3 -25 41 Left 2
SYMATTR InstName L3
SYMATTR Value 900µ
SYMATTR Type ind
SYMBOL diode 464 -64 R180
WINDOW 0 24 64 Left 2
WINDOW 3 24 0 Left 2
SYMATTR InstName D1
SYMATTR Value 1N5060
SYMBOL diode 464 80 R180
WINDOW 0 24 64 Left 2
WINDOW 3 24 0 Left 2
SYMATTR InstName D2
SYMATTR Value 1N5060
SYMBOL diode 624 80 R180
WINDOW 0 24 64 Left 2
WINDOW 3 24 0 Left 2
SYMATTR InstName D3
SYMATTR Value 1N5060
SYMBOL diode 624 -64 R180
WINDOW 0 24 64 Left 2
WINDOW 3 24 0 Left 2
SYMATTR InstName D4
SYMATTR Value 1N5060
SYMBOL cap 512 -128 R0
SYMATTR InstName C1
SYMATTR Value .01µ
SYMBOL cap 512 16 R0
SYMATTR InstName C2
SYMATTR Value .01µ
SYMBOL cap 672 -128 R0
SYMATTR InstName C3
SYMATTR Value .01µ
SYMBOL cap 672 16 R0
SYMATTR InstName C4
SYMATTR Value .01µ
SYMBOL polcap 768 -128 R0
SYMATTR InstName C5
SYMATTR Value 6800µ
SYMBOL polcap 768 16 R0
SYMATTR InstName C6
SYMATTR Value 6800µ
SYMBOL AutoGenerated\\LM7815 128 336 R0
SYMATTR InstName U1
SYMATTR SpiceModel LM7815
SYMBOL AutoGenerated\\LM7915 128 528 R0
SYMATTR InstName U2
SYMBOL polcap 304 304 R0
SYMATTR InstName C7
SYMATTR Value 6800µ
SYMBOL polcap 304 496 R0
SYMATTR InstName C8
SYMATTR Value 6800µ
SYMBOL res 464 288 R0
SYMATTR InstName R1
SYMATTR Value 2.2k
SYMBOL res 464 464 R0
SYMATTR InstName R2
SYMATTR Value 2.2k
SYMBOL cap 672 304 R0
SYMATTR InstName C9
SYMATTR Value 6.8µ
SYMBOL cap 672 480 R0
SYMATTR InstName C10
SYMATTR Value 6.8µ
SYMBOL cap 64 -32 R0
SYMATTR InstName C11
SYMATTR Value .22µ
TEXT 168 -112 Left 2 !K1 L1 L2 L3 1
TEXT -216 -256 Left 2 !.include C:\\Users\\Dougl\\OneDrive\\Ham Radio\\KiCad Files\\W7ZOI Spectrum Analyzer\\15v-supply\\1n5060.lib
TEXT -160 -80 Left 2 !.tran 3u
TEXT -208 -232 Left 2 !.lib LM7815.lib
LINE Normal 208 64 208 -80 2
LINE Normal 208 64 208 64 2
LINE Normal 208 64 208 64 2
LINE Normal 208 64 208 64 2
LINE Normal 192 64 192 -80 2
LINE Normal 192 64 192 64 2
LINE Normal 192 64 192 64 2
