Version 4
SHEET 1 1260 680
WIRE -512 -16 -512 -48
WIRE -336 -16 -416 -16
WIRE -304 -16 -336 -16
WIRE -192 -16 -224 -16
WIRE -160 -16 -192 -16
WIRE -112 -16 -160 -16
WIRE -80 -16 -112 -16
WIRE 0 -16 -16 -16
WIRE 48 -16 0 -16
WIRE 96 -16 48 -16
WIRE 128 -16 96 -16
WIRE 208 -16 192 -16
WIRE 256 -16 208 -16
WIRE 320 -16 256 -16
WIRE 336 -16 320 -16
WIRE 416 -16 400 -16
WIRE 480 -16 416 -16
WIRE 544 -16 480 -16
WIRE 576 -16 544 -16
WIRE 656 -16 640 -16
WIRE 704 -16 656 -16
WIRE 752 -16 704 -16
WIRE 800 -16 752 -16
WIRE 912 -16 864 -16
WIRE 992 -16 912 -16
WIRE 1024 -16 992 -16
WIRE 1120 -16 1104 -16
WIRE 1136 -16 1120 -16
WIRE 1216 -16 1136 -16
WIRE 48 0 48 -16
WIRE 96 0 96 -16
WIRE 256 0 256 -16
WIRE 320 0 320 -16
WIRE 480 0 480 -16
WIRE 544 0 544 -16
WIRE 704 0 704 -16
WIRE 752 0 752 -16
WIRE 912 0 912 -16
WIRE 992 0 992 -16
WIRE 1136 0 1136 -16
WIRE -112 16 -112 -16
WIRE 0 16 0 -16
WIRE 208 16 208 -16
WIRE 416 16 416 -16
WIRE 656 16 656 -16
WIRE -512 96 -512 64
WIRE -336 112 -336 64
WIRE -192 112 -192 64
WIRE -112 112 -112 80
WIRE 0 112 0 96
WIRE 48 112 48 64
WIRE 96 112 96 64
WIRE 208 112 208 96
WIRE 256 112 256 64
WIRE 320 112 320 64
WIRE 416 112 416 96
WIRE 480 112 480 64
WIRE 544 112 544 64
WIRE 656 112 656 96
WIRE 704 112 704 64
WIRE 752 112 752 64
WIRE 912 112 912 64
WIRE 992 112 992 80
WIRE 1136 112 1136 80
FLAG -416 -16 In
IOPIN -416 -16 In
FLAG -336 112 0
FLAG -192 112 0
FLAG -112 112 0
FLAG 0 112 0
FLAG 48 112 0
FLAG 96 112 0
FLAG 208 112 0
FLAG 256 112 0
FLAG 320 112 0
FLAG 1216 -16 Out
IOPIN 1216 -16 Out
FLAG -512 96 0
FLAG 416 112 0
FLAG 480 112 0
FLAG 544 112 0
FLAG 656 112 0
FLAG 704 112 0
FLAG 752 112 0
FLAG -512 -48 In
IOPIN -512 -48 Out
FLAG -160 -16 Pad1
FLAG 912 112 0
FLAG 992 112 0
FLAG 1136 112 0
FLAG 1120 -16 Pad2
SYMBOL cap -16 -32 R90
WINDOW 0 0 32 VBottom 2
WINDOW 3 32 32 VTop 2
SYMATTR InstName C1
SYMATTR Value 56p
SYMBOL cap -128 16 R0
SYMATTR InstName C2
SYMATTR Value 120p
SYMBOL cap 32 0 R0
SYMATTR InstName C3
SYMATTR Value 60p
SYMBOL cap 80 0 R0
SYMATTR InstName C4
SYMATTR Value 100p
SYMBOL cap 192 -32 R90
WINDOW 0 0 32 VBottom 2
WINDOW 3 32 32 VTop 2
SYMATTR InstName C5
SYMATTR Value 5.6p
SYMBOL cap 240 0 R0
SYMATTR InstName C6
SYMATTR Value 60p
SYMBOL cap 304 0 R0
SYMATTR InstName C7
SYMATTR Value 150p
SYMBOL cap 400 -32 R90
WINDOW 0 0 32 VBottom 2
WINDOW 3 32 32 VTop 2
SYMATTR InstName C8
SYMATTR Value 3.3p
SYMBOL cap 464 0 R0
SYMATTR InstName C9
SYMATTR Value 60p
SYMBOL cap 528 0 R0
SYMATTR InstName C10
SYMATTR Value 150p
SYMBOL cap 640 -32 R90
WINDOW 0 0 32 VBottom 2
WINDOW 3 32 32 VTop 2
SYMATTR InstName C11
SYMATTR Value 5.6p
SYMBOL cap 688 0 R0
SYMATTR InstName C12
SYMATTR Value 60p
SYMBOL cap 736 0 R0
SYMATTR InstName C13
SYMATTR Value 100p
SYMBOL cap 800 0 R270
WINDOW 0 32 32 VTop 2
WINDOW 3 0 32 VBottom 2
SYMATTR InstName C14
SYMATTR Value 56p
SYMBOL cap 896 0 R0
SYMATTR InstName C15
SYMATTR Value 120p
SYMBOL res -208 -32 R90
WINDOW 0 0 56 VBottom 2
WINDOW 3 32 56 VTop 2
SYMATTR InstName R1
SYMATTR Value 36
SYMBOL res -352 -32 R0
SYMATTR InstName R2
SYMATTR Value 150
SYMBOL res -208 -32 R0
SYMATTR InstName R3
SYMATTR Value 150
SYMBOL ind 16 0 M0
SYMATTR InstName L1
SYMATTR Value 1.15µ
SYMBOL ind 224 0 M0
SYMATTR InstName L2
SYMATTR Value 1.15µ
SYMBOL ind 432 0 M0
SYMATTR InstName L3
SYMATTR Value 1.15µ
SYMBOL ind 672 0 M0
SYMATTR InstName L4
SYMATTR Value 1.15µ
SYMBOL voltage -512 -32 R0
WINDOW 123 24 108 Left 2
WINDOW 39 0 0 Left 0
SYMATTR Value2 AC 1 0
SYMATTR InstName V1
SYMATTR Value ""
SYMBOL res 976 -16 R0
SYMATTR InstName R4
SYMATTR Value 10Meg
SYMBOL res 1120 -16 R0
SYMATTR InstName R5
SYMATTR Value 10Meg
SYMBOL res 1120 -32 R90
WINDOW 0 0 56 VBottom 2
WINDOW 3 32 56 VTop 2
SYMATTR InstName R6
SYMATTR Value 0
TEXT -544 -112 Left 2 !.ac dec 1000 1khz 200Meg
