Version 4
SHEET 1 1980 680
WIRE -160 -64 -256 -64
WIRE -96 -64 -160 -64
WIRE 32 -64 -16 -64
WIRE 208 -64 32 -64
WIRE 272 -64 208 -64
WIRE 384 -64 336 -64
WIRE 464 -64 384 -64
WIRE 544 -64 464 -64
WIRE 624 -64 544 -64
WIRE 704 -64 688 -64
WIRE 752 -64 704 -64
WIRE 816 -64 752 -64
WIRE 848 -64 816 -64
WIRE 928 -64 912 -64
WIRE 992 -64 928 -64
WIRE 1056 -64 992 -64
WIRE 1088 -64 1056 -64
WIRE 1168 -64 1152 -64
WIRE 1216 -64 1168 -64
WIRE 1264 -64 1216 -64
WIRE 1376 -64 1328 -64
WIRE 1520 -64 1376 -64
WIRE 1552 -64 1520 -64
WIRE 1664 -64 1632 -64
WIRE 1776 -64 1664 -64
WIRE 1936 -64 1776 -64
WIRE 464 -48 464 -64
WIRE 544 -48 544 -64
WIRE 752 -48 752 -64
WIRE 816 -48 816 -64
WIRE 992 -48 992 -64
WIRE 1056 -48 1056 -64
WIRE 1216 -48 1216 -64
WIRE 1264 -48 1264 -64
WIRE 1376 -48 1376 -64
WIRE 1520 -48 1520 -64
WIRE 1664 -48 1664 -64
WIRE 208 -32 208 -64
WIRE 384 -32 384 -64
WIRE 704 -32 704 -64
WIRE 928 -32 928 -64
WIRE 1168 -32 1168 -64
WIRE -560 0 -560 -32
WIRE 1776 48 1776 16
WIRE -160 64 -160 16
WIRE 32 64 32 16
WIRE 208 64 208 32
WIRE 384 64 384 48
WIRE 464 64 464 16
WIRE 544 64 544 16
WIRE 704 64 704 48
WIRE 752 64 752 16
WIRE 816 64 816 16
WIRE 928 64 928 48
WIRE 992 64 992 16
WIRE 1056 64 1056 16
WIRE 1168 64 1168 48
WIRE 1216 64 1216 16
WIRE 1264 64 1264 16
WIRE 1376 64 1376 16
WIRE 1520 64 1520 32
WIRE 1664 64 1664 32
WIRE -560 112 -560 80
FLAG -256 -64 In
IOPIN -256 -64 In
FLAG -160 64 0
FLAG 32 64 0
FLAG 208 64 0
FLAG 384 64 0
FLAG 464 64 0
FLAG 544 64 0
FLAG 704 64 0
FLAG 752 64 0
FLAG 816 64 0
FLAG 1936 -64 Out
IOPIN 1936 -64 Out
FLAG -560 112 0
FLAG 928 64 0
FLAG 992 64 0
FLAG 1056 64 0
FLAG 1168 64 0
FLAG 1216 64 0
FLAG 1264 64 0
FLAG -560 -32 In
IOPIN -560 -32 Out
FLAG 1376 64 0
FLAG 1520 64 0
FLAG 1664 64 0
FLAG 1776 48 0
SYMBOL cap 336 -80 R90
WINDOW 0 0 32 VBottom 2
WINDOW 3 32 32 VTop 2
SYMATTR InstName C1
SYMATTR Value 56p
SYMBOL cap 192 -32 R0
SYMATTR InstName C2
SYMATTR Value 120p
SYMBOL cap 448 -48 R0
SYMATTR InstName C3
SYMATTR Value 30p
SYMBOL cap 528 -48 R0
SYMATTR InstName C4
SYMATTR Value 100p
SYMBOL cap 688 -80 R90
WINDOW 0 0 32 VBottom 2
WINDOW 3 32 32 VTop 2
SYMATTR InstName C5
SYMATTR Value 5.6p
SYMBOL cap 736 -48 R0
SYMATTR InstName C6
SYMATTR Value 30p
SYMBOL cap 800 -48 R0
SYMATTR InstName C7
SYMATTR Value 150p
SYMBOL cap 912 -80 R90
WINDOW 0 0 32 VBottom 2
WINDOW 3 32 32 VTop 2
SYMATTR InstName C8
SYMATTR Value 3.3p
SYMBOL cap 976 -48 R0
SYMATTR InstName C9
SYMATTR Value 30p
SYMBOL cap 1040 -48 R0
SYMATTR InstName C10
SYMATTR Value 150p
SYMBOL cap 1152 -80 R90
WINDOW 0 0 32 VBottom 2
WINDOW 3 32 32 VTop 2
SYMATTR InstName C11
SYMATTR Value 5.6p
SYMBOL cap 1200 -48 R0
SYMATTR InstName C12
SYMATTR Value 30p
SYMBOL cap 1248 -48 R0
SYMATTR InstName C13
SYMATTR Value 100p
SYMBOL cap 1264 -48 R270
WINDOW 0 32 32 VTop 2
WINDOW 3 0 32 VBottom 2
SYMATTR InstName C14
SYMATTR Value 56p
SYMBOL cap 1360 -48 R0
SYMATTR InstName C15
SYMATTR Value 120p
SYMBOL res 0 -80 R90
WINDOW 0 0 56 VBottom 2
WINDOW 3 32 56 VTop 2
SYMATTR InstName R1
SYMATTR Value 36
SYMBOL res -176 -80 R0
SYMATTR InstName R2
SYMATTR Value 150
SYMBOL res 16 -80 R0
SYMATTR InstName R3
SYMATTR Value 150
SYMBOL ind 400 -48 M0
SYMATTR InstName L1
SYMATTR Value 1.15µ
SYMBOL ind 720 -48 M0
SYMATTR InstName L2
SYMATTR Value 1.15µ
SYMBOL ind 944 -48 M0
SYMATTR InstName L3
SYMATTR Value 1.3µ
SYMBOL ind 1184 -48 M0
SYMATTR InstName L4
SYMATTR Value 1.3µ
SYMBOL voltage -560 -16 R0
WINDOW 123 24 108 Left 2
WINDOW 39 24 120 Left 2
SYMATTR Value2 AC 1 0
SYMATTR SpiceLine Rser=50
SYMATTR InstName V1
SYMATTR Value ""
SYMBOL res 1504 -64 R0
SYMATTR InstName R4
SYMATTR Value 10Meg
SYMBOL res 1648 -64 R0
SYMATTR InstName R5
SYMATTR Value 10Meg
SYMBOL res 1648 -80 R90
WINDOW 0 0 56 VBottom 2
WINDOW 3 32 56 VTop 2
SYMATTR InstName R6
SYMATTR Value 0
SYMBOL res 1760 -80 R0
SYMATTR InstName R7
SYMATTR Value 50
SYMBOL spdt 320 -400 R0
SYMATTR InstName U1
TEXT -592 -96 Left 2 !.ac dec 1000 1khz 200Meg
TEXT -528 -72 Left 2 !.net I (R7) V1
TEXT 416 -368 Left 2 !.subckt SPDT COM NO NC POS NEG\nS1 COM NO POS NEG MYSW1\nS2 COM NC NEG POS MYSW2\n.model MYSW1 SW(Ron=.01 Roff=1000Meg Vh=.25 Vt=.5)\n.model MYSW2 SW(Ron=.01 Roff=1000Meg Vh=.25 Vt=-.5)\n.ends
